@<TRIPOS>MOLECULE
JZ4
 28 28 0 0 0
SMALL
GASTEIGER

@<TRIPOS>ATOM
      1 C          24.3287  -24.0034   -0.1310 C.3     1  UNL1       -0.0653
      2 C          21.3633  -27.2355   -4.1970 C.3     1  UNL1       -0.0526
      3 C          21.9838  -26.7457   -5.5055 C.3     1  UNL1       -0.0507
      4 C          22.9693  -25.5983   -5.3207 C.3     1  UNL1       -0.0266
      5 C          22.4050  -24.5055   -4.4122 C.3     1  UNL1        0.0581
      6 C          21.9662  -26.5754   -2.9611 C.3     1  UNL1       -0.0479
      7 C          21.8978  -25.0400   -3.0476 C.3     1  UNL1       -0.0150
      8 C          22.4638  -24.3523   -1.7868 C.3     1  UNL1       -0.0481
      9 C          23.9001  -24.7207   -1.4039 C.3     1  UNL1       -0.0556
     10 O          23.3482  -23.4500   -4.2821 O.3     1  UNL1       -0.3915
     11 H          25.3605  -24.2660    0.1227 H       1  UNL1        0.0230
     12 H          24.2731  -22.9171   -0.2517 H       1  UNL1        0.0230
     13 H          23.6905  -24.2896    0.7114 H       1  UNL1        0.0230
     14 H          20.2836  -27.0430   -4.2178 H       1  UNL1        0.0265
     15 H          21.4749  -28.3236   -4.1222 H       1  UNL1        0.0265
     16 H          22.4895  -27.5775   -6.0095 H       1  UNL1        0.0266
     17 H          21.1795  -26.4288   -6.1807 H       1  UNL1        0.0266
     18 H          23.9113  -25.9778   -4.9046 H       1  UNL1        0.0290
     19 H          23.2371  -25.1734   -6.2957 H       1  UNL1        0.0290
     20 H          21.5450  -24.0598   -4.9284 H       1  UNL1        0.0596
     21 H          21.4326  -26.9215   -2.0681 H       1  UNL1        0.0269
     22 H          23.0030  -26.9137   -2.8580 H       1  UNL1        0.0269
     23 H          20.8235  -24.7978   -3.0351 H       1  UNL1        0.0326
     24 H          22.3791  -23.2640   -1.8996 H       1  UNL1        0.0269
     25 H          21.8113  -24.6134   -0.9423 H       1  UNL1        0.0269
     26 H          24.5973  -24.4640   -2.2055 H       1  UNL1        0.0263
     27 H          23.9878  -25.7978   -1.2312 H       1  UNL1        0.0263
     28 H          24.2341  -23.8399   -4.1902 H       1  UNL1        0.2098
@<TRIPOS>BOND
     1     1     9    1
     2     2     3    1
     3     2     6    1
     4     3     4    1
     5     4     5    1
     6     5    10    1
     7     5     7    1
     8     6     7    1
     9     7     8    1
    10     8     9    1
    11     1    11    1
    12     1    12    1
    13     1    13    1
    14     2    14    1
    15     2    15    1
    16     3    16    1
    17     3    17    1
    18     4    18    1
    19     4    19    1
    20     5    20    1
    21     6    21    1
    22     6    22    1
    23     7    23    1
    24     8    24    1
    25     8    25    1
    26     9    26    1
    27     9    27    1
    28    10    28    1
