@<TRIPOS>MOLECULE
JZ4
   28    28     1     0     0
SMALL
bcc


@<TRIPOS>ATOM
      1 C           24.3290   -24.0030    -0.1310 c3         1 UNL      -0.095100
      2 C1          21.3630   -27.2350    -4.1970 c6         1 UNL      -0.078400
      3 C2          21.9840   -26.7460    -5.5050 c6         1 UNL      -0.072400
      4 C3          22.9690   -25.5980    -5.3210 c6         1 UNL      -0.109400
      5 C4          22.4050   -24.5060    -4.4120 c6         1 UNL       0.146100
      6 C5          21.9660   -26.5750    -2.9610 c6         1 UNL      -0.073400
      7 C6          21.8980   -25.0400    -3.0480 c6         1 UNL      -0.088700
      8 C7          22.4640   -24.3520    -1.7870 c3         1 UNL      -0.080400
      9 C8          23.9000   -24.7210    -1.4040 c3         1 UNL      -0.082400
     10 O           23.3480   -23.4500    -4.2820 oh         1 UNL      -0.596800
     11 H           25.3600   -24.2660     0.1230 hc         1 UNL       0.034367
     12 H1          24.2730   -22.9170    -0.2520 hc         1 UNL       0.034367
     13 H2          23.6910   -24.2900     0.7110 hc         1 UNL       0.034367
     14 H3          20.2840   -27.0430    -4.2180 hc         1 UNL       0.040200
     15 H4          21.4750   -28.3240    -4.1220 hc         1 UNL       0.040200
     16 H5          22.4890   -27.5780    -6.0100 hc         1 UNL       0.040200
     17 H6          21.1800   -26.4290    -6.1810 hc         1 UNL       0.040200
     18 H7          23.9110   -25.9780    -4.9050 hc         1 UNL       0.046200
     19 H8          23.2370   -25.1730    -6.2960 hc         1 UNL       0.046200
     20 H9          21.5450   -24.0600    -4.9280 h1         1 UNL       0.070700
     21 H10         21.4330   -26.9220    -2.0680 hc         1 UNL       0.042700
     22 H11         23.0030   -26.9140    -2.8580 hc         1 UNL       0.042700
     23 H12         20.8230   -24.7980    -3.0350 hc         1 UNL       0.049700
     24 H13         22.3790   -23.2640    -1.9000 hc         1 UNL       0.048200
     25 H14         21.8110   -24.6130    -0.9420 hc         1 UNL       0.048200
     26 H15         24.5970   -24.4640    -2.2050 hc         1 UNL       0.037200
     27 H16         23.9880   -25.7980    -1.2310 hc         1 UNL       0.037200
     28 H17         24.2340   -23.8400    -4.1900 ho         1 UNL       0.399000
@<TRIPOS>BOND
     1     1     9 1   
     2     2     3 1   
     3     2     6 1   
     4     3     4 1   
     5     4     5 1   
     6     5    10 1   
     7     5     7 1   
     8     6     7 1   
     9     7     8 1   
    10     8     9 1   
    11     1    11 1   
    12     1    12 1   
    13     1    13 1   
    14     2    14 1   
    15     2    15 1   
    16     3    16 1   
    17     3    17 1   
    18     4    18 1   
    19     4    19 1   
    20     5    20 1   
    21     6    21 1   
    22     6    22 1   
    23     7    23 1   
    24     8    24 1   
    25     8    25 1   
    26     9    26 1   
    27     9    27 1   
    28    10    28 1   
@<TRIPOS>SUBSTRUCTURE
     1 UNL         1 TEMP              0 ****  ****    0 ROOT
