@<TRIPOS>MOLECULE
JZ4
 28 28 0 0 0
SMALL
GASTEIGER

@<TRIPOS>ATOM
      1 C          24.2940  -24.1240   -0.0710 C.3     1  JZ4       -0.0653
      2 C          21.5530  -27.2140   -4.1120 C.3     1  JZ4       -0.0526
      3 C          22.0680  -26.7470   -5.3310 C.3     1  JZ4       -0.0507
      4 C          22.6710  -25.5120   -5.4480 C.3     1  JZ4       -0.0266
      5 C          22.7690  -24.7300   -4.2950 C.3     1  JZ4        0.0581
      6 C          21.6930  -26.4590   -2.9540 C.3     1  JZ4       -0.0479
      7 C          22.2940  -25.1870   -3.0750 C.3     1  JZ4       -0.0150
      8 C          22.4630  -24.4140   -1.8080 C.3     1  JZ4       -0.0481
      9 C          23.9250  -24.7040   -1.3940 C.3     1  JZ4       -0.0556
     10 O          23.4120  -23.5360   -4.3420 O.3     1  JZ4       -0.3915
     11 H          25.3133  -24.3619    0.1510 H       1  JZ4        0.0230
     12 H          24.1744  -23.0611   -0.1016 H       1  JZ4        0.0230
     13 H          23.6591  -24.5327    0.6872 H       1  JZ4        0.0230
     14 H          20.5031  -27.3601   -4.2581 H       1  JZ4        0.0265
     15 H          22.1524  -28.0774   -3.9114 H       1  JZ4        0.0265
     16 H          22.7966  -27.4660   -5.6426 H       1  JZ4        0.0266
     17 H          21.1798  -26.6177   -5.9135 H       1  JZ4        0.0266
     18 H          23.6645  -25.6736   -5.8109 H       1  JZ4        0.0290
     19 H          22.0299  -24.9565   -6.1002 H       1  JZ4        0.0290
     20 H          21.7612  -24.5723   -4.6180 H       1  JZ4        0.0596
     21 H          20.7147  -26.3140   -2.5455 H       1  JZ4        0.0269
     22 H          22.3656  -27.0216   -2.3408 H       1  JZ4        0.0269
     23 H          21.9017  -24.4849   -3.7808 H       1  JZ4        0.0326
     24 H          22.3145  -23.3678   -1.9766 H       1  JZ4        0.0269
     25 H          21.7557  -24.6923   -1.0549 H       1  JZ4        0.0269
     26 H          24.5755  -24.2929   -2.1374 H       1  JZ4        0.0263
     27 H          24.0241  -25.7662   -1.3110 H       1  JZ4        0.0263
     28 H          24.3117  -23.6495   -4.0590 H       1  JZ4        0.2098
@<TRIPOS>BOND
     1     1     9    1
     2     2     3    1
     3     2     6    1
     4     3     4    1
     5     4     5    1
     6     5    10    1
     7     5     7    1
     8     6     7    1
     9     7     8    1
    10     8     9    1
    11     1    11    1
    12     1    12    1
    13     1    13    1
    14     2    14    1
    15     2    15    1
    16     3    16    1
    17     3    17    1
    18     4    18    1
    19     4    19    1
    20     5    20    1
    21     6    21    1
    22     6    22    1
    23     7    23    1
    24     8    24    1
    25     8    25    1
    26     9    26    1
    27     9    27    1
    28    10    28    1
